16
        Energy:       1.8384351
C         -3.78444        0.95117       -2.24249
C         -5.13557        1.04576       -2.93527
H         -3.29014       -0.00654       -2.50929
H         -3.91251        1.00071       -1.14000
H         -3.13590        1.79033       -2.57093
O         -5.95621       -0.01147       -2.54047
O         -5.75380        2.25772       -2.62484
H         -6.28332       -0.40537       -3.38862
H        -11.17505        0.08334       -2.93644
O         -8.95057        1.42824       -3.50636
C         -9.59297        0.51848       -4.34734
C        -10.41274       -0.46580       -3.52798
H         -9.75420       -1.03438       -2.83715
H         -9.29368        2.31411       -3.78722
H        -10.93114       -1.17624       -4.20556
O         -8.64511       -0.15985       -5.11430
